56   
Lattice="0 0.0 0.0 0.0
W 12.555845 22.623573 -7.836050
A 12.964781 19.277881 -7.029685
A 10.482373 20.062800 -10.101414
A 8.136455 23.354584 -9.659904
A 4.892760 20.879544 -10.688213
A 3.118455 24.039162 -12.361296
A 0.809370 24.175273 -9.521355
A -2.936310 24.557000 -9.652260
A -6.077076 25.575113 -12.413991
C -9.025063 28.577682 -13.156061
C -10.901422 25.563108 -11.064420
A -8.427315 22.808354 -10.028054
A -9.971320 21.142452 -6.875368
A -13.694761 19.381694 -5.399648
A -12.046945 18.863635 -1.706641
A -9.809833 20.177213 0.919227
A -8.232391 24.192034 0.470778
A -6.330180 25.748248 3.598395
A -4.905370 23.732605 6.794319
W -8.141317 25.272836 7.017540
W -8.823553 22.742671 10.004571
W -8.964877 21.582988 13.755668
P -9.099737 21.988664 17.640535
P -7.220265 21.453425 20.350199
P -5.353599 24.152256 18.220045
P -1.821813 24.233713 19.158110
P -4.632529 23.820299 17.820595
P -3.583945 24.492516 14.345130
P -1.945935 20.707549 14.272932
P 0.910596 19.704658 17.266264
P 3.821427 21.353783 15.749751
P 5.460554 23.071655 12.427593
P 8.405163 24.718237 14.522841
P 11.483642 22.459502 14.879932
P 14.704715 25.268174 13.111869
P 13.578365 21.803892 12.328794
W 15.824181 20.886940 14.931479
W 18.080496 19.607673 12.341963
W 16.757069 16.397025 14.481482
W 20.092401 15.635062 16.288441
A 19.638968 12.664489 18.610465
A 21.926819 10.689394 17.396863
A 22.467622 9.159429 14.143196
A 20.265828 11.408582 12.132109
A 17.215868 11.955422 10.534722
A 17.566273 11.687531 6.345451
A 14.437655 10.883690 3.942068
C 13.525713 14.827574 2.707679
C 14.855021 18.438528 1.925011
A 16.224337 19.531947 -1.215833
A 19.286499 21.174268 -2.876280
A 21.737145 19.401160 -4.800332
A 23.972353 18.951329 -7.739753
A 25.968819 18.292810 -5.046077
A 26.784372 21.811937 -6.543655
W 25.413108 24.141527 -3.964237
